New "Line.hvmv_sub_connector" length=0.001 units=none r1=0.001 r0=0.001 x1=0.01 x0=0.01 C1=0 C0=0 bus1=4 bus2=5
New "Line.a8735_48332_sw" Switch=True r1=1 x1=1 r0=1 x0=1 length=0.001 bus1=6 bus2=7
New "Line.ln5710794-3" length=0.01943604 units=km linecode=3PH_H-397_ACSR397_ACSR397_ACSR397_ACSR Seasons=1 Ratings=[400,] normamps=0.1 emergamps=20 bus1=5 bus2=6
